<?xml version="1.0" encoding="UTF-8"?>
<!-- generated on 2018-04-07 16:51:52.465416 by $Id$
  options: -n kaoshiung.net.xml -o osm.trips.xml -e 500 <doubleminus>trip-attributes=departLane="best" departSpeed="max" departPos="random"
-->
<routes xmlns:xsi="http://www.w3.org/2001/XMLSchema-instance" xsi:noNamespaceSchemaLocation="http://sumo.dlr.de/xsd/routes_file.xsd">
    <trip id="0" depart="0.00" from="-385202255#10" to="-88867310#0" departLane="best" departSpeed="max" departPos="random"/>
    <trip id="1" depart="1.00" from="257245112#5" to="296980004#3" departLane="best" departSpeed="max" departPos="random"/>
    <trip id="2" depart="2.00" from="-93331250#1" to="272200694#1" departLane="best" departSpeed="max" departPos="random"/>
    <trip id="3" depart="3.00" from="-88867327#0" to="-94059895#2" departLane="best" departSpeed="max" departPos="random"/>
    <trip id="4" depart="4.00" from="386281940#0" to="184383636#1" departLane="best" departSpeed="max" departPos="random"/>
    <trip id="5" depart="5.00" from="23582544#1" to="-92071606#0" departLane="best" departSpeed="max" departPos="random"/>
    <trip id="6" depart="6.00" from="255537686#5" to="46142799#5" departLane="best" departSpeed="max" departPos="random"/>
    <trip id="7" depart="7.00" from="520932346#0" to="403863070#1" departLane="best" departSpeed="max" departPos="random"/>
    <trip id="8" depart="8.00" from="232496355#10" to="401959564#1" departLane="best" departSpeed="max" departPos="random"/>
    <trip id="9" depart="9.00" from="-221608654#1" to="88867327#1" departLane="best" departSpeed="max" departPos="random"/>
    <trip id="10" depart="10.00" from="254607164#0" to="-184383578#0" departLane="best" departSpeed="max" departPos="random"/>
    <trip id="11" depart="11.00" from="257245112#5" to="-330465828#5" departLane="best" departSpeed="max" departPos="random"/>
    <trip id="12" depart="12.00" from="-92041049#6" to="-88867300#1" departLane="best" departSpeed="max" departPos="random"/>
    <trip id="13" depart="13.00" from="436566854#0" to="232496362#0" departLane="best" departSpeed="max" departPos="random"/>
    <trip id="14" depart="14.00" from="184383587#5" to="-386281939#3" departLane="best" departSpeed="max" departPos="random"/>
    <trip id="15" depart="15.00" from="272200697#3" to="92041049#6" departLane="best" departSpeed="max" departPos="random"/>
    <trip id="16" depart="16.00" from="-184383558#4" to="93475347#0" departLane="best" departSpeed="max" departPos="random"/>
    <trip id="17" depart="17.00" from="92071741#2" to="-330465828#2" departLane="best" departSpeed="max" departPos="random"/>
    <trip id="18" depart="18.00" from="-296213172#3" to="232496355#11" departLane="best" departSpeed="max" departPos="random"/>
    <trip id="19" depart="19.00" from="232496368#6" to="-184383555" departLane="best" departSpeed="max" departPos="random"/>
    <trip id="20" depart="20.00" from="-23582546#1" to="385202255#3" departLane="best" departSpeed="max" departPos="random"/>
    <trip id="21" depart="21.00" from="-232496368#7" to="-51005978#1" departLane="best" departSpeed="max" departPos="random"/>
    <trip id="22" depart="22.00" from="-232496355#4" to="-296980003#1" departLane="best" departSpeed="max" departPos="random"/>
    <trip id="23" depart="23.00" from="-184383558#4" to="270585766#1" departLane="best" departSpeed="max" departPos="random"/>
    <trip id="24" depart="24.00" from="184383587#5" to="418972770" departLane="best" departSpeed="max" departPos="random"/>
    <trip id="25" depart="25.00" from="42680532#0" to="-232496368#2" departLane="best" departSpeed="max" departPos="random"/>
    <trip id="26" depart="26.00" from="-92041049#0" to="25823393#1" departLane="best" departSpeed="max" departPos="random"/>
    <trip id="27" depart="27.00" from="23683303" to="-221608654#1" departLane="best" departSpeed="max" departPos="random"/>
    <trip id="28" depart="28.00" from="-296215789#5" to="-296980004#0" departLane="best" departSpeed="max" departPos="random"/>
    <trip id="29" depart="29.00" from="-330465828#5" to="232496355#10" departLane="best" departSpeed="max" departPos="random"/>
    <trip id="30" depart="30.00" from="-51005978#0" to="385202255#2" departLane="best" departSpeed="max" departPos="random"/>
    <trip id="31" depart="31.00" from="221608654#4" to="51005979#3" departLane="best" departSpeed="max" departPos="random"/>
    <trip id="32" depart="32.00" from="-296213172#2" to="385202256#1" departLane="best" departSpeed="max" departPos="random"/>
    <trip id="33" depart="33.00" from="221608654#3" to="296980004#1" departLane="best" departSpeed="max" departPos="random"/>
    <trip id="34" depart="34.00" from="184383587#3" to="385202255#1" departLane="best" departSpeed="max" departPos="random"/>
    <trip id="35" depart="35.00" from="-94059895#4" to="-88867298" departLane="best" departSpeed="max" departPos="random"/>
    <trip id="36" depart="36.00" from="403863073" to="51005979#0" departLane="best" departSpeed="max" departPos="random"/>
    <trip id="37" depart="37.00" from="225874158" to="23582544#0" departLane="best" departSpeed="max" departPos="random"/>
    <trip id="38" depart="38.00" from="92041158" to="221608654#0" departLane="best" departSpeed="max" departPos="random"/>
    <trip id="39" depart="39.00" from="-23582546#8" to="23582546#0" departLane="best" departSpeed="max" departPos="random"/>
    <trip id="40" depart="40.00" from="35164004#1" to="184383587#4" departLane="best" departSpeed="max" departPos="random"/>
    <trip id="41" depart="41.00" from="-330465830#0" to="88867311" departLane="best" departSpeed="max" departPos="random"/>
    <trip id="42" depart="42.00" from="184383636#1" to="25568481#4" departLane="best" departSpeed="max" departPos="random"/>
    <trip id="43" depart="43.00" from="296213172#3" to="-184383558#1" departLane="best" departSpeed="max" departPos="random"/>
    <trip id="44" depart="44.00" from="232496355#5" to="296980007#0" departLane="best" departSpeed="max" departPos="random"/>
    <trip id="45" depart="45.00" from="296980003#2" to="-385202255#9" departLane="best" departSpeed="max" departPos="random"/>
    <trip id="46" depart="46.00" from="296980004#2" to="35164004#3" departLane="best" departSpeed="max" departPos="random"/>
    <trip id="47" depart="47.00" from="-184383636#1" to="-25568481#2" departLane="best" departSpeed="max" departPos="random"/>
    <trip id="48" depart="48.00" from="-232496368#9" to="92041148" departLane="best" departSpeed="max" departPos="random"/>
    <trip id="49" depart="49.00" from="184383587#4" to="-232496362#0" departLane="best" departSpeed="max" departPos="random"/>
    <trip id="50" depart="50.00" from="184383587#3" to="-401959564#0" departLane="best" departSpeed="max" departPos="random"/>
    <trip id="51" depart="51.00" from="-23582544#2" to="94059895#2" departLane="best" departSpeed="max" departPos="random"/>
    <trip id="52" depart="52.00" from="-88867311" to="-88867311" departLane="best" departSpeed="max" departPos="random"/>
    <trip id="53" depart="53.00" from="232496355#2" to="184383558#4" departLane="best" departSpeed="max" departPos="random"/>
    <trip id="54" depart="54.00" from="330465827#0" to="-257245119#0" departLane="best" departSpeed="max" departPos="random"/>
    <trip id="55" depart="55.00" from="270268067#1" to="-401959564#1" departLane="best" departSpeed="max" departPos="random"/>
    <trip id="56" depart="56.00" from="92071741#5" to="-385202259#0" departLane="best" departSpeed="max" departPos="random"/>
    <trip id="57" depart="57.00" from="-88867322#3" to="-385202255#9" departLane="best" departSpeed="max" departPos="random"/>
    <trip id="58" depart="58.00" from="35164004#3" to="-94059895#1" departLane="best" departSpeed="max" departPos="random"/>
    <trip id="59" depart="59.00" from="-23582544#4" to="254607165#0" departLane="best" departSpeed="max" departPos="random"/>
    <trip id="60" depart="60.00" from="221608654#2" to="184383576#7" departLane="best" departSpeed="max" departPos="random"/>
    <trip id="61" depart="61.00" from="280728219#1" to="184383558#3" departLane="best" departSpeed="max" departPos="random"/>
    <trip id="62" depart="62.00" from="330465828#7" to="232496355#10" departLane="best" departSpeed="max" departPos="random"/>
    <trip id="63" depart="63.00" from="385202258#0" to="23582546#5" departLane="best" departSpeed="max" departPos="random"/>
    <trip id="64" depart="64.00" from="30074977" to="280728219#1" departLane="best" departSpeed="max" departPos="random"/>
    <trip id="65" depart="65.00" from="-272200694#2" to="-88867322#5" departLane="best" departSpeed="max" departPos="random"/>
    <trip id="66" depart="66.00" from="23582546#0" to="-385202255#8" departLane="best" departSpeed="max" departPos="random"/>
    <trip id="67" depart="67.00" from="254607168" to="88867314#1" departLane="best" departSpeed="max" departPos="random"/>
    <trip id="68" depart="68.00" from="23582546#4" to="-257245119#0" departLane="best" departSpeed="max" departPos="random"/>
    <trip id="69" depart="69.00" from="46142799#6" to="-401959566#1" departLane="best" departSpeed="max" departPos="random"/>
    <trip id="70" depart="70.00" from="23582546#0" to="-88867313#2" departLane="best" departSpeed="max" departPos="random"/>
    <trip id="71" depart="71.00" from="-184383552" to="386281939#2" departLane="best" departSpeed="max" departPos="random"/>
    <trip id="72" depart="72.00" from="-88867313#0" to="-88867313#1" departLane="best" departSpeed="max" departPos="random"/>
    <trip id="73" depart="73.00" from="270585771#0" to="94059895#1" departLane="best" departSpeed="max" departPos="random"/>
    <trip id="74" depart="74.00" from="-184383552" to="255537686#1" departLane="best" departSpeed="max" departPos="random"/>
    <trip id="75" depart="75.00" from="-88867300#1" to="296980001#2" departLane="best" departSpeed="max" departPos="random"/>
    <trip id="76" depart="76.00" from="383026340#3" to="296980003#0" departLane="best" departSpeed="max" departPos="random"/>
    <trip id="77" depart="77.00" from="51005979#1" to="-184383576#4" departLane="best" departSpeed="max" departPos="random"/>
    <trip id="78" depart="78.00" from="35164004#1" to="330465828#5" departLane="best" departSpeed="max" departPos="random"/>
    <trip id="79" depart="79.00" from="232501700#0" to="296980007#0" departLane="best" departSpeed="max" departPos="random"/>
    <trip id="80" depart="80.00" from="71928163#0" to="232496368#2" departLane="best" departSpeed="max" departPos="random"/>
    <trip id="81" depart="81.00" from="330465828#2" to="-184383558#3" departLane="best" departSpeed="max" departPos="random"/>
    <trip id="82" depart="82.00" from="-88867322#3" to="92071741#4" departLane="best" departSpeed="max" departPos="random"/>
    <trip id="83" depart="83.00" from="184383588#2" to="46142799#1" departLane="best" departSpeed="max" departPos="random"/>
    <trip id="84" depart="84.00" from="296980001#3" to="88867317#0" departLane="best" departSpeed="max" departPos="random"/>
    <trip id="85" depart="85.00" from="-232496368#5" to="88867314#0" departLane="best" departSpeed="max" departPos="random"/>
    <trip id="86" depart="86.00" from="23582544#5" to="257245119#1" departLane="best" departSpeed="max" departPos="random"/>
    <trip id="87" depart="87.00" from="-272200694#8" to="232496368#3" departLane="best" departSpeed="max" departPos="random"/>
    <trip id="88" depart="88.00" from="184383555" to="-92041158" departLane="best" departSpeed="max" departPos="random"/>
    <trip id="89" depart="89.00" from="-184383558#6" to="92071655#4" departLane="best" departSpeed="max" departPos="random"/>
    <trip id="90" depart="90.00" from="232496368#4" to="232496368#0" departLane="best" departSpeed="max" departPos="random"/>
    <trip id="91" depart="91.00" from="-23582544#0" to="23582544#6" departLane="best" departSpeed="max" departPos="random"/>
    <trip id="92" depart="92.00" from="401959566#0" to="-184383552" departLane="best" departSpeed="max" departPos="random"/>
    <trip id="93" depart="93.00" from="-88867314#0" to="-385202257" departLane="best" departSpeed="max" departPos="random"/>
    <trip id="94" depart="94.00" from="386281939#2" to="184383558#0" departLane="best" departSpeed="max" departPos="random"/>
    <trip id="95" depart="95.00" from="-232496368#9" to="383026348#2" departLane="best" departSpeed="max" departPos="random"/>
    <trip id="96" depart="96.00" from="-94059895#1" to="-272200694#0" departLane="best" departSpeed="max" departPos="random"/>
    <trip id="97" depart="97.00" from="254607164#0" to="-401959566#1" departLane="best" departSpeed="max" departPos="random"/>
    <trip id="98" depart="98.00" from="-401959564#0" to="-232496362#0" departLane="best" departSpeed="max" departPos="random"/>
    <trip id="99" depart="99.00" from="88867314#3" to="92041049#7" departLane="best" departSpeed="max" departPos="random"/>
    <trip id="100" depart="100.00" from="-71928163#1" to="-51005979#2" departLane="best" departSpeed="max" departPos="random"/>
    <trip id="101" depart="101.00" from="-270268067#2" to="-232496368#10" departLane="best" departSpeed="max" departPos="random"/>
    <trip id="102" depart="102.00" from="88867313#3" to="-254607164#2" departLane="best" departSpeed="max" departPos="random"/>
    <trip id="103" depart="103.00" from="-88867314#2" to="-272200697#2" departLane="best" departSpeed="max" departPos="random"/>
    <trip id="104" depart="104.00" from="184383639#0" to="88867327#1" departLane="best" departSpeed="max" departPos="random"/>
    <trip id="105" depart="105.00" from="184383586" to="-386281939#3" departLane="best" departSpeed="max" departPos="random"/>
    <trip id="106" depart="106.00" from="-92041049#3" to="88867300#2" departLane="best" departSpeed="max" departPos="random"/>
    <trip id="107" depart="107.00" from="257245112#0" to="184383576#3" departLane="best" departSpeed="max" departPos="random"/>
    <trip id="108" depart="108.00" from="-184383636#0" to="330465828#2" departLane="best" departSpeed="max" departPos="random"/>
    <trip id="109" depart="109.00" from="88867310#3" to="-23582546#0" departLane="best" departSpeed="max" departPos="random"/>
    <trip id="110" depart="110.00" from="-232496368#0" to="383026348#3" departLane="best" departSpeed="max" departPos="random"/>
    <trip id="111" depart="111.00" from="92071606#0" to="-330465828#3" departLane="best" departSpeed="max" departPos="random"/>
    <trip id="112" depart="112.00" from="296213175" to="92071741#6" departLane="best" departSpeed="max" departPos="random"/>
    <trip id="113" depart="113.00" from="272200697#2" to="232496368#7" departLane="best" departSpeed="max" departPos="random"/>
    <trip id="114" depart="114.00" from="-46142799#6" to="52254946#1" departLane="best" departSpeed="max" departPos="random"/>
    <trip id="115" depart="115.00" from="-88867310#3" to="254607166#1" departLane="best" departSpeed="max" departPos="random"/>
    <trip id="116" depart="116.00" from="-272200694#5" to="-330465828#1" departLane="best" departSpeed="max" departPos="random"/>
    <trip id="117" depart="117.00" from="46142799#9" to="88867300#3" departLane="best" departSpeed="max" departPos="random"/>
    <trip id="118" depart="118.00" from="184383558#0" to="184383558#5" departLane="best" departSpeed="max" departPos="random"/>
    <trip id="119" depart="119.00" from="23978594#1" to="-385202255#2" departLane="best" departSpeed="max" departPos="random"/>
    <trip id="120" depart="120.00" from="-184383576#7" to="330465829#0" departLane="best" departSpeed="max" departPos="random"/>
    <trip id="121" depart="121.00" from="401959564#2" to="-330465828#6" departLane="best" departSpeed="max" departPos="random"/>
    <trip id="122" depart="122.00" from="35164004#2" to="92041049#4" departLane="best" departSpeed="max" departPos="random"/>
    <trip id="123" depart="123.00" from="184383576#6" to="255537686#5" departLane="best" departSpeed="max" departPos="random"/>
    <trip id="124" depart="124.00" from="-23582546#3" to="272200694#3" departLane="best" departSpeed="max" departPos="random"/>
    <trip id="125" depart="125.00" from="92071741#1" to="-385202258#0" departLane="best" departSpeed="max" departPos="random"/>
    <trip id="126" depart="126.00" from="-280728219#0" to="296213172#1" departLane="best" departSpeed="max" departPos="random"/>
    <trip id="127" depart="127.00" from="-23978594#0" to="-385202255#0" departLane="best" departSpeed="max" departPos="random"/>
    <trip id="128" depart="128.00" from="92041158" to="-330465828#7" departLane="best" departSpeed="max" departPos="random"/>
    <trip id="129" depart="129.00" from="296980004#1" to="255537687#0" departLane="best" departSpeed="max" departPos="random"/>
    <trip id="130" depart="130.00" from="-385202255#0" to="385202255#4" departLane="best" departSpeed="max" departPos="random"/>
    <trip id="131" depart="131.00" from="-254607168" to="51005979#1" departLane="best" departSpeed="max" departPos="random"/>
    <trip id="132" depart="132.00" from="-232496368#0" to="35983484#0" departLane="best" departSpeed="max" departPos="random"/>
    <trip id="133" depart="133.00" from="-35164004#4" to="270268067#0" departLane="best" departSpeed="max" departPos="random"/>
    <trip id="134" depart="134.00" from="23582546#8" to="232501700#3" departLane="best" departSpeed="max" departPos="random"/>
    <trip id="135" depart="135.00" from="296980004#0" to="383026340#5" departLane="best" departSpeed="max" departPos="random"/>
    <trip id="136" depart="136.00" from="232496368#0" to="92041058" departLane="best" departSpeed="max" departPos="random"/>
    <trip id="137" depart="137.00" from="330465830#1" to="-88867300#2" departLane="best" departSpeed="max" departPos="random"/>
    <trip id="138" depart="138.00" from="-88867310#0" to="-88867315#0" departLane="best" departSpeed="max" departPos="random"/>
    <trip id="139" depart="139.00" from="-51005978#3" to="-272200697#1" departLane="best" departSpeed="max" departPos="random"/>
    <trip id="140" depart="140.00" from="-386281939#2" to="184383588#1" departLane="best" departSpeed="max" departPos="random"/>
    <trip id="141" depart="141.00" from="-232496355#7" to="232496355#3" departLane="best" departSpeed="max" departPos="random"/>
    <trip id="142" depart="142.00" from="-272200694#1" to="23506825" departLane="best" departSpeed="max" departPos="random"/>
    <trip id="143" depart="143.00" from="296980004#3" to="385202255#6" departLane="best" departSpeed="max" departPos="random"/>
    <trip id="144" depart="144.00" from="-88867322#2" to="-88867327#0" departLane="best" departSpeed="max" departPos="random"/>
    <trip id="145" depart="145.00" from="92071741#2" to="-25568481#3" departLane="best" departSpeed="max" departPos="random"/>
    <trip id="146" depart="146.00" from="46142799#4" to="-46142799#5" departLane="best" departSpeed="max" departPos="random"/>
    <trip id="147" depart="147.00" from="184383552" to="25568481#2" departLane="best" departSpeed="max" departPos="random"/>
    <trip id="148" depart="148.00" from="184383588#3" to="-386281940#1" departLane="best" departSpeed="max" departPos="random"/>
    <trip id="149" depart="149.00" from="-184383558#4" to="23582546#1" departLane="best" departSpeed="max" departPos="random"/>
    <trip id="150" depart="150.00" from="296213175" to="386281939#1" departLane="best" departSpeed="max" departPos="random"/>
    <trip id="151" depart="151.00" from="-270268067#0" to="-93475347#0" departLane="best" departSpeed="max" departPos="random"/>
    <trip id="152" depart="152.00" from="383026335" to="255537694" departLane="best" departSpeed="max" departPos="random"/>
    <trip id="153" depart="153.00" from="-46142799#5" to="-232496355#1" departLane="best" departSpeed="max" departPos="random"/>
    <trip id="154" depart="154.00" from="-270268067#1" to="-386281939#1" departLane="best" departSpeed="max" departPos="random"/>
    <trip id="155" depart="155.00" from="-23978594#3" to="-23582546#8" departLane="best" departSpeed="max" departPos="random"/>
    <trip id="156" depart="156.00" from="-71928163#1" to="418972774#0" departLane="best" departSpeed="max" departPos="random"/>
    <trip id="157" depart="157.00" from="-330465828#5" to="-401959566#0" departLane="best" departSpeed="max" departPos="random"/>
    <trip id="158" depart="158.00" from="88867327#1" to="23582544#3" departLane="best" departSpeed="max" departPos="random"/>
    <trip id="159" depart="159.00" from="385202255#1" to="-46142799#5" departLane="best" departSpeed="max" departPos="random"/>
    <trip id="160" depart="160.00" from="-46142799#1" to="-232501700#1" departLane="best" departSpeed="max" departPos="random"/>
    <trip id="161" depart="161.00" from="-71928163#1" to="-232496362#0" departLane="best" departSpeed="max" departPos="random"/>
    <trip id="162" depart="162.00" from="51005978#1" to="-232501700#0" departLane="best" departSpeed="max" departPos="random"/>
    <trip id="163" depart="163.00" from="-23582544#2" to="-280728219#0" departLane="best" departSpeed="max" departPos="random"/>
    <trip id="164" depart="164.00" from="-296980001#3" to="23683304#3" departLane="best" departSpeed="max" departPos="random"/>
    <trip id="165" depart="165.00" from="386281939#2" to="403863070#2" departLane="best" departSpeed="max" departPos="random"/>
    <trip id="166" depart="166.00" from="23582546#3" to="88867313#1" departLane="best" departSpeed="max" departPos="random"/>
    <trip id="167" depart="167.00" from="-520932346#0" to="92071655#1" departLane="best" departSpeed="max" departPos="random"/>
    <trip id="168" depart="168.00" from="-232496355#4" to="330465829#0" departLane="best" departSpeed="max" departPos="random"/>
    <trip id="169" depart="169.00" from="-520932346#1" to="-23582544#4" departLane="best" departSpeed="max" departPos="random"/>
    <trip id="170" depart="170.00" from="88867313#0" to="232496362#0" departLane="best" departSpeed="max" departPos="random"/>
    <trip id="171" depart="171.00" from="403863073" to="-23582546#7" departLane="best" departSpeed="max" departPos="random"/>
    <trip id="172" depart="172.00" from="254607165#1" to="-88867310#3" departLane="best" departSpeed="max" departPos="random"/>
    <trip id="173" depart="173.00" from="-272200694#8" to="-270268067#2" departLane="best" departSpeed="max" departPos="random"/>
    <trip id="174" depart="174.00" from="35983484#0" to="-232496355#10" departLane="best" departSpeed="max" departPos="random"/>
    <trip id="175" depart="175.00" from="-401959567#1" to="23582546#9" departLane="best" departSpeed="max" departPos="random"/>
    <trip id="176" depart="176.00" from="-296980004#4" to="184383558#7" departLane="best" departSpeed="max" departPos="random"/>
    <trip id="177" depart="177.00" from="296980016" to="-88867327#1" departLane="best" departSpeed="max" departPos="random"/>
    <trip id="178" depart="178.00" from="35164004#1" to="386281939#3" departLane="best" departSpeed="max" departPos="random"/>
    <trip id="179" depart="179.00" from="94059895#2" to="51005979#2" departLane="best" departSpeed="max" departPos="random"/>
    <trip id="180" depart="180.00" from="-296980003#1" to="88867314#0" departLane="best" departSpeed="max" departPos="random"/>
    <trip id="181" depart="181.00" from="270268067#1" to="-386281940#1" departLane="best" departSpeed="max" departPos="random"/>
    <trip id="182" depart="182.00" from="296980001#1" to="-23582544#3" departLane="best" departSpeed="max" departPos="random"/>
    <trip id="183" depart="183.00" from="23582546#3" to="385202257" departLane="best" departSpeed="max" departPos="random"/>
    <trip id="184" depart="184.00" from="265614897#2" to="52254946#2" departLane="best" departSpeed="max" departPos="random"/>
    <trip id="185" depart="185.00" from="296980001#4" to="88867317#2" departLane="best" departSpeed="max" departPos="random"/>
    <trip id="186" depart="186.00" from="221608654#1" to="51005978#0" departLane="best" departSpeed="max" departPos="random"/>
    <trip id="187" depart="187.00" from="-23582544#3" to="232496368#1" departLane="best" departSpeed="max" departPos="random"/>
    <trip id="188" depart="188.00" from="-23978594#0" to="254607164#2" departLane="best" departSpeed="max" departPos="random"/>
    <trip id="189" depart="189.00" from="385202259#1" to="403863070#1" departLane="best" departSpeed="max" departPos="random"/>
    <trip id="190" depart="190.00" from="23978594#0" to="232496368#10" departLane="best" departSpeed="max" departPos="random"/>
    <trip id="191" depart="191.00" from="272200694#1" to="-92041049#7" departLane="best" departSpeed="max" departPos="random"/>
    <trip id="192" depart="192.00" from="280728219#1" to="296215789#2" departLane="best" departSpeed="max" departPos="random"/>
    <trip id="193" depart="193.00" from="51005979#1" to="232496368#9" departLane="best" departSpeed="max" departPos="random"/>
    <trip id="194" depart="194.00" from="23582544#4" to="24149482#0" departLane="best" departSpeed="max" departPos="random"/>
    <trip id="195" depart="195.00" from="46142799#0" to="42680532#0" departLane="best" departSpeed="max" departPos="random"/>
    <trip id="196" depart="196.00" from="93331250#0" to="88867322#6" departLane="best" departSpeed="max" departPos="random"/>
    <trip id="197" depart="197.00" from="385202257" to="-386281939#1" departLane="best" departSpeed="max" departPos="random"/>
    <trip id="198" depart="198.00" from="296980001#4" to="330465827#1" departLane="best" departSpeed="max" departPos="random"/>
    <trip id="199" depart="199.00" from="25568481#4" to="-385202259#1" departLane="best" departSpeed="max" departPos="random"/>
    <trip id="200" depart="200.00" from="184383587#3" to="232501700#0" departLane="best" departSpeed="max" departPos="random"/>
    <trip id="201" depart="201.00" from="-221608654#2" to="23506825" departLane="best" departSpeed="max" departPos="random"/>
    <trip id="202" depart="202.00" from="88867327#0" to="-46142799#1" departLane="best" departSpeed="max" departPos="random"/>
    <trip id="203" depart="203.00" from="-88867313#1" to="88867322#1" departLane="best" departSpeed="max" departPos="random"/>
    <trip id="204" depart="204.00" from="-385202255#8" to="-385202255#10" departLane="best" departSpeed="max" departPos="random"/>
    <trip id="205" depart="205.00" from="232496368#2" to="232496355#5" departLane="best" departSpeed="max" departPos="random"/>
    <trip id="206" depart="206.00" from="-88867310#1" to="296980003#2" departLane="best" departSpeed="max" departPos="random"/>
    <trip id="207" depart="207.00" from="-52254946#1" to="296213172#3" departLane="best" departSpeed="max" departPos="random"/>
    <trip id="208" depart="208.00" from="25568481#1" to="35164004#3" departLane="best" departSpeed="max" departPos="random"/>
    <trip id="209" depart="209.00" from="-88867311" to="42680532#1" departLane="best" departSpeed="max" departPos="random"/>
    <trip id="210" depart="210.00" from="401959567#1" to="-385202255#10" departLane="best" departSpeed="max" departPos="random"/>
    <trip id="211" depart="211.00" from="-51005978#1" to="296213172#1" departLane="best" departSpeed="max" departPos="random"/>
    <trip id="212" depart="212.00" from="-88867313#0" to="383026335" departLane="best" departSpeed="max" departPos="random"/>
    <trip id="213" depart="213.00" from="436566854#0" to="385202255#5" departLane="best" departSpeed="max" departPos="random"/>
    <trip id="214" depart="214.00" from="232496362#1" to="-385202255#9" departLane="best" departSpeed="max" departPos="random"/>
    <trip id="215" depart="215.00" from="184383588#2" to="-71928163#0" departLane="best" departSpeed="max" departPos="random"/>
    <trip id="216" depart="216.00" from="-88867317#2" to="52254946#2" departLane="best" departSpeed="max" departPos="random"/>
    <trip id="217" depart="217.00" from="-25568481#0" to="436566854#1" departLane="best" departSpeed="max" departPos="random"/>
    <trip id="218" depart="218.00" from="-25568481#1" to="23582546#9" departLane="best" departSpeed="max" departPos="random"/>
    <trip id="219" depart="219.00" from="-88867322#0" to="-93475347#1" departLane="best" departSpeed="max" departPos="random"/>
    <trip id="220" depart="220.00" from="-35164004#2" to="257245119#0" departLane="best" departSpeed="max" departPos="random"/>
    <trip id="221" depart="221.00" from="92041158" to="71928163#0" departLane="best" departSpeed="max" departPos="random"/>
    <trip id="222" depart="222.00" from="-94059895#3" to="257245119#1" departLane="best" departSpeed="max" departPos="random"/>
    <trip id="223" depart="223.00" from="-23978594#2" to="-232496355#10" departLane="best" departSpeed="max" departPos="random"/>
    <trip id="224" depart="224.00" from="52254946#2" to="-71928163#0" departLane="best" departSpeed="max" departPos="random"/>
    <trip id="225" depart="225.00" from="265614897#2" to="-24149482#0" departLane="best" departSpeed="max" departPos="random"/>
    <trip id="226" depart="226.00" from="418972774#1" to="-23582546#2" departLane="best" departSpeed="max" departPos="random"/>
    <trip id="227" depart="227.00" from="232496368#10" to="401959564#1" departLane="best" departSpeed="max" departPos="random"/>
    <trip id="228" depart="228.00" from="-232496368#2" to="-296980004#2" departLane="best" departSpeed="max" departPos="random"/>
    <trip id="229" depart="229.00" from="-385202255#0" to="-46142799#2" departLane="best" departSpeed="max" departPos="random"/>
    <trip id="230" depart="230.00" from="-92041049#6" to="280728219#2" departLane="best" departSpeed="max" departPos="random"/>
    <trip id="231" depart="231.00" from="-272200694#2" to="35164004#0" departLane="best" departSpeed="max" departPos="random"/>
    <trip id="232" depart="232.00" from="-94059895#4" to="184383576#0" departLane="best" departSpeed="max" departPos="random"/>